<?xml version="1.0" encoding="UTF-8"?>

<!-- generated on 2022-08-22 14:47:39 by Eclipse SUMO netedit Version 1.12.0
-->

<routes xmlns:xsi="http://www.w3.org/2001/XMLSchema-instance" xsi:noNamespaceSchemaLocation="http://sumo.dlr.de/xsd/routes_file.xsd">
    <route id="bottom_right" edges="E_BOTTOM E_RIGHT"/>
    <route id="left_right" edges="E_LEFT E_RIGHT"/>
    <vType id="vtypeauto" accel="2.5" decel="9.0" sigma="0.5" length="4" minGap="0" maxSpeed="1000" color="1,0,0" probability="1" speedFactor="2"
        carFollowModel="CC" tauEngine="0.5" omegaN="0.2" xi="1" c1="0.5" lanesCount="4" ccAccel="1.5" ploegKp="0.2" ploegKd="0.7" ploegH="0.5" />
</routes>
