<?xml version="1.0" encoding="UTF-8"?>

<!-- generated on 2022-08-26 10:00:26 by Eclipse SUMO netedit Version 1.12.0
<configuration xmlns:xsi="http://www.w3.org/2001/XMLSchema-instance" xsi:noNamespaceSchemaLocation="http://sumo.dlr.de/xsd/netconvertConfiguration.xsd">

    <input>
        <sumo-net-file value="intersection.net.xml"/>
    </input>

    <output>
        <output-file value="intersection.net.xml"/>
    </output>

    <processing>
        <geometry.min-radius.fix.railways value="false"/>
        <geometry.max-grade.fix value="false"/>
        <offset.disable-normalization value="true"/>
        <lefthand value="false"/>
    </processing>

    <junctions>
        <no-turnarounds value="true"/>
        <junctions.corner-detail value="5"/>
        <junctions.limit-turn-speed value="5.5"/>
        <rectangular-lane-cut value="false"/>
    </junctions>

    <pedestrian>
        <walkingareas value="false"/>
    </pedestrian>

    <report>
        <aggregate-warnings value="5"/>
    </report>

</configuration>
-->

<net version="1.9" junctionCornerDetail="5" limitTurnSpeed="5.50" xmlns:xsi="http://www.w3.org/2001/XMLSchema-instance" xsi:noNamespaceSchemaLocation="http://sumo.dlr.de/xsd/net_file.xsd">

    <location netOffset="0.00,0.00" convBoundary="-500.00,-600.00,500.00,0.00" origBoundary="-10000000000.00,-10000000000.00,10000000000.00,10000000000.00" projParameter="!"/>

    <edge id=":CENTER_0" function="internal">
        <lane id=":CENTER_0_0" index="0" speed="13.89" length="1.85" shape="3.70,1.60 5.55,1.60"/>
    </edge>
    <edge id=":CENTER_1" function="internal">
        <lane id=":CENTER_1_0" index="0" speed="13.89" length="1.85" shape="5.55,-1.60 3.70,-1.60"/>
    </edge>
    <edge id=":INTERSECTION_0" function="internal">
        <lane id=":INTERSECTION_0_0" index="0" speed="13.89" length="12.55" shape="5.35,1.60 -7.20,1.60"/>
    </edge>
    <edge id=":INTERSECTION_1" function="internal">
        <lane id=":INTERSECTION_1_0" index="0" speed="7.61" length="3.21" shape="5.35,1.60 2.31,1.05 2.21,0.98"/>
    </edge>
    <edge id=":INTERSECTION_6" function="internal">
        <lane id=":INTERSECTION_6_0" index="0" speed="7.61" length="9.53" shape="2.21,0.98 0.14,-0.60 -1.17,-3.35 -1.60,-7.20"/>
    </edge>
    <edge id=":INTERSECTION_2" function="internal">
        <lane id=":INTERSECTION_2_0" index="0" speed="6.03" length="7.60" shape="1.60,-7.20 1.83,-4.75 2.54,-3.00 3.71,-1.95 5.35,-1.60"/>
    </edge>
    <edge id=":INTERSECTION_3" function="internal">
        <lane id=":INTERSECTION_3_0" index="0" speed="8.00" length="14.19" shape="1.60,-7.20 1.05,-3.35 -0.60,-0.60 -3.35,1.05 -7.20,1.60"/>
    </edge>
    <edge id=":INTERSECTION_4" function="internal">
        <lane id=":INTERSECTION_4_0" index="0" speed="6.51" length="9.03" shape="-7.20,-1.60 -4.75,-1.95 -3.00,-3.00 -1.95,-4.75 -1.60,-7.20"/>
    </edge>
    <edge id=":INTERSECTION_5" function="internal">
        <lane id=":INTERSECTION_5_0" index="0" speed="13.89" length="12.55" shape="-7.20,-1.60 5.35,-1.60"/>
    </edge>

    <edge id="-E_BOTTOM" from="INTERSECTION" to="BOTTOM" priority="-1">
        <lane id="-E_BOTTOM_0" index="0" speed="13.89" length="592.80" shape="-1.60,-7.20 -1.60,-600.00"/>
    </edge>
    <edge id="-E_LEFT" from="INTERSECTION" to="LEFT" priority="-1">
        <lane id="-E_LEFT_0" index="0" speed="13.89" length="492.80" shape="-7.20,1.60 -500.00,1.60"/>
    </edge>
    <edge id="-E_RIGHT" from="RIGHT" to="CENTER" priority="-1">
        <lane id="-E_RIGHT_0" index="0" speed="13.89" length="496.30" shape="500.00,1.60 3.70,1.60"/>
    </edge>
    <edge id="-E_RIGHT0" from="CENTER" to="INTERSECTION" priority="-1">
        <lane id="-E_RIGHT0_0" index="0" speed="13.89" length="0.20" shape="5.55,1.60 5.35,1.60"/>
    </edge>
    <edge id="E_BOTTOM" from="BOTTOM" to="INTERSECTION" priority="-1">
        <lane id="E_BOTTOM_0" index="0" speed="13.89" length="592.80" shape="1.60,-600.00 1.60,-7.20"/>
    </edge>
    <edge id="E_LEFT" from="LEFT" to="INTERSECTION" priority="-1">
        <lane id="E_LEFT_0" index="0" speed="13.89" length="492.80" shape="-500.00,-1.60 -7.20,-1.60"/>
    </edge>
    <edge id="E_RIGHT" from="INTERSECTION" to="CENTER" priority="-1">
        <lane id="E_RIGHT_0" index="0" speed="13.89" length="0.20" shape="5.35,-1.60 5.55,-1.60"/>
    </edge>
    <edge id="E_RIGHT.3" from="CENTER" to="RIGHT" priority="-1">
        <lane id="E_RIGHT.3_0" index="0" speed="13.89" length="496.30" shape="3.70,-1.60 500.00,-1.60"/>
    </edge>

    <junction id="BOTTOM" type="dead_end" x="0.00" y="-600.00" incLanes="-E_BOTTOM_0" intLanes="" shape="0.00,-600.00 -3.20,-600.00 0.00,-600.00"/>
    <junction id="CENTER" type="priority" x="3.70" y="0.00" incLanes="-E_RIGHT_0 E_RIGHT_0" intLanes=":CENTER_0_0 :CENTER_1_0" shape="3.70,3.20 3.70,-3.20 3.70,3.20">
        <request index="0" response="00" foes="00" cont="0"/>
        <request index="1" response="00" foes="00" cont="0"/>
    </junction>
    <junction id="INTERSECTION" type="priority" x="0.00" y="0.00" incLanes="-E_RIGHT0_0 E_BOTTOM_0 E_LEFT_0" intLanes=":INTERSECTION_0_0 :INTERSECTION_6_0 :INTERSECTION_2_0 :INTERSECTION_3_0 :INTERSECTION_4_0 :INTERSECTION_5_0" shape="7.20,3.20 7.20,-3.20 3.20,-7.20 -3.20,-7.20 -3.64,-4.98 -4.20,-4.20 -4.98,-3.64 -5.98,-3.31 -7.20,-3.20 -7.20,3.20">
        <request index="0" response="000000" foes="001000" cont="0"/>
        <request index="1" response="110000" foes="111000" cont="1"/>
        <request index="2" response="100000" foes="100000" cont="0"/>
        <request index="3" response="100011" foes="100011" cont="0"/>
        <request index="4" response="000000" foes="000010" cont="0"/>
        <request index="5" response="000000" foes="001110" cont="0"/>
    </junction>
    <junction id="LEFT" type="dead_end" x="-500.00" y="0.00" incLanes="-E_LEFT_0" intLanes="" shape="-500.00,0.00 -500.00,3.20 -500.00,0.00"/>
    <junction id="RIGHT" type="dead_end" x="500.00" y="0.00" incLanes="E_RIGHT.3_0" intLanes="" shape="500.00,0.00 500.00,-3.20 500.00,0.00"/>

    <junction id=":INTERSECTION_6_0" type="internal" x="2.21" y="0.98" incLanes=":INTERSECTION_1_0 E_LEFT_0" intLanes=":INTERSECTION_3_0 :INTERSECTION_4_0 :INTERSECTION_5_0"/>

    <connection from="-E_RIGHT" to="-E_RIGHT0" fromLane="0" toLane="0" via=":CENTER_0_0" dir="s" state="M"/>
    <connection from="-E_RIGHT0" to="-E_LEFT" fromLane="0" toLane="0" via=":INTERSECTION_0_0" dir="s" state="M"/>
    <connection from="-E_RIGHT0" to="-E_BOTTOM" fromLane="0" toLane="0" via=":INTERSECTION_1_0" dir="l" state="m"/>
    <connection from="E_BOTTOM" to="E_RIGHT" fromLane="0" toLane="0" via=":INTERSECTION_2_0" dir="r" state="m"/>
    <connection from="E_BOTTOM" to="-E_LEFT" fromLane="0" toLane="0" via=":INTERSECTION_3_0" dir="l" state="m"/>
    <connection from="E_LEFT" to="-E_BOTTOM" fromLane="0" toLane="0" via=":INTERSECTION_4_0" dir="r" state="M"/>
    <connection from="E_LEFT" to="E_RIGHT" fromLane="0" toLane="0" via=":INTERSECTION_5_0" dir="s" state="M"/>
    <connection from="E_RIGHT" to="E_RIGHT.3" fromLane="0" toLane="0" via=":CENTER_1_0" dir="s" state="M"/>

    <connection from=":CENTER_0" to="-E_RIGHT0" fromLane="0" toLane="0" dir="s" state="M"/>
    <connection from=":CENTER_1" to="E_RIGHT.3" fromLane="0" toLane="0" dir="s" state="M"/>
    <connection from=":INTERSECTION_0" to="-E_LEFT" fromLane="0" toLane="0" dir="s" state="M"/>
    <connection from=":INTERSECTION_1" to="-E_BOTTOM" fromLane="0" toLane="0" via=":INTERSECTION_6_0" dir="l" state="m"/>
    <connection from=":INTERSECTION_6" to="-E_BOTTOM" fromLane="0" toLane="0" dir="l" state="M"/>
    <connection from=":INTERSECTION_2" to="E_RIGHT" fromLane="0" toLane="0" dir="r" state="M"/>
    <connection from=":INTERSECTION_3" to="-E_LEFT" fromLane="0" toLane="0" dir="l" state="M"/>
    <connection from=":INTERSECTION_4" to="-E_BOTTOM" fromLane="0" toLane="0" dir="r" state="M"/>
    <connection from=":INTERSECTION_5" to="E_RIGHT" fromLane="0" toLane="0" dir="s" state="M"/>

</net>
