<nodes> <!-- The opening tag -->

    <node id="J0" x="0" y="0"/>
    <node id="J1" x="1000" y="0"/>

</nodes>

